 <material>
    <type>isotropic</type>
    <name>Gelcoat</name>
    <reference>OpenFAST dev branch excel and yaml file</reference>
    <ex>3.4400e+09</ex>
    <gxy>1.3230e+09</gxy>
    <dens>1235</dens>
    <nuxy>0.30</nuxy>
    <Thick>1.00</Thick>
    <cost>7.23</cost>
 </material>
 <material>
    <type>orthotropic</type>
    <name>glass_uni</name>
    <reference>OpenFAST dev branch excel and yaml file</reference>
    <ex>4.4600e+10</ex>
    <ey>1.7000e+10</ey>
    <ez>1.6700e+10</ez>
    <gxy>3.2700e+09</gxy>
    <gyz>3.4800e+09</gyz>
    <gxz>3.5000e+09</gxz>
    <prxy>0.26</prxy>
    <pryz>0.35</pryz>
    <prxz>0.26</prxz>
    <dens>1940</dens>
    <Thick>1.00</Thick>
    <cost>1.87</cost>
 </material>
 <material>
    <type>orthotropic</type>
    <name>CarbonUD</name>
    <reference>OpenFAST dev branch excel and yaml file</reference>
    <ex>1.1450e+11</ex>
    <ey>8.3900e+09</ey>
    <ez>8.3900e+09</ez>
    <gxy>5.9900e+09</gxy>
    <gyz>5.9900e+09</gyz>
    <gxz>5.9900e+09</gxz>
    <prxy>0.27</prxy>
    <pryz>0.27</pryz>
    <prxz>0.27</prxz>
    <dens>1220</dens>
    <Thick>1.00</Thick>
    <cost>30.00</cost>
 </material>
 <material>
    <type>orthotropic</type>
    <name>glass_biax</name>
    <reference>OpenFAST dev branch excel and yaml file</reference>
    <ex>1.1100e+10</ex>
    <ey>1.1100e+10</ey>
    <ez>1.6700e+10</ez>
    <gxy>1.3530e+10</gxy>
    <gyz>3.4900e+09</gyz>
    <gxz>3.4900e+09</gxz>
    <prxy>0.50</prxy>
    <pryz>0.00</pryz>
    <prxz>0.07</prxz>
    <dens>1940</dens>
    <Thick>1.00</Thick>
    <cost>3.00</cost>
 </material>
 <material>
    <type>orthotropic</type>
    <name>glass_triax</name>
    <reference>OpenFAST dev branch excel and yaml file</reference>
    <ex>2.8700e+10</ex>
    <ey>1.6600e+10</ey>
    <ez>1.6700e+10</ez>
    <gxy>8.4000e+09</gxy>
    <gyz>3.4900e+09</gyz>
    <gxz>3.4900e+09</gxz>
    <prxy>0.50</prxy>
    <pryz>0.00</pryz>
    <prxz>0.17</prxz>
    <dens>1940</dens>
    <Thick>1.00</Thick>
    <cost>2.86</cost>
 </material>
 <material>
    <type>orthotropic</type>
    <name>medium_density_foam</name>
    <reference>OpenFAST dev branch excel and yaml file</reference>
    <ex>1.2920e+08</ex>
    <ey>1.2920e+08</ey>
    <ez>1.2920e+08</ez>
    <gxy>4.8947e+07</gxy>
    <gyz>4.8947e+07</gyz>
    <gxz>4.8947e+07</gxz>
    <prxy>0.32</prxy>
    <pryz>0.32</pryz>
    <prxz>0.32</prxz>
    <dens> 130</dens>
    <Thick>1.00</Thick>
    <cost>13.00</cost>
 </material>
 <material>
    <type>isotropic</type>
    <name>resin</name>
    <reference>OpenFAST dev branch excel and yaml file</reference>
    <ex>1.0000e+06</ex>
    <gxy>3.1250e+05</gxy>
    <dens>1150</dens>
    <nuxy>0.30</nuxy>
    <Thick>1.00</Thick>
    <cost>3.63</cost>
 </material>
 <material>
    <type>composite</type>
    <name>000000_HP_FLAT</name>
    <reference>Reference text</reference>
    <thicknessType>Constant</thicknessType>
    <uniqueLayers>5</uniqueLayers>
    <symmetryType>none</symmetryType>
    <layer>
       <layerName>Gelcoat</layerName>
       <thicknessA>0.0010000</thicknessA>
       <thicknessB>0.0010000</thicknessB>
       <quantity>5.000000e-01</quantity>
       <theta>0</theta>
    </layer>
    <layer>
       <layerName>glass_triax</layerName>
       <thicknessA>0.0010000</thicknessA>
       <thicknessB>0.0010000</thicknessB>
       <quantity>50</quantity>
       <theta>0</theta>
    </layer>
    <layer>
       <layerName>glass_uni</layerName>
       <thicknessA>0.0010000</thicknessA>
       <thicknessB>0.0010000</thicknessB>
       <quantity>0</quantity>
       <theta>0</theta>
    </layer>
    <layer>
       <layerName>glass_triax</layerName>
       <thicknessA>0.0010000</thicknessA>
       <thicknessB>0.0010000</thicknessB>
       <quantity>50</quantity>
       <theta>0</theta>
    </layer>
    <layer>
       <layerName>Gelcoat</layerName>
       <thicknessA>0.0010000</thicknessA>
       <thicknessB>0.0010000</thicknessB>
       <quantity>0</quantity>
       <theta>0</theta>
    </layer>
 </material>
 <material>
    <type>composite</type>
    <name>000000_HP_TEREINF</name>
    <reference>Reference text</reference>
    <thicknessType>Constant</thicknessType>
    <uniqueLayers>5</uniqueLayers>
    <symmetryType>none</symmetryType>
    <layer>
       <layerName>Gelcoat</layerName>
       <thicknessA>0.0010000</thicknessA>
       <thicknessB>0.0010000</thicknessB>
       <quantity>5.000000e-01</quantity>
       <theta>0</theta>
    </layer>
    <layer>
       <layerName>glass_triax</layerName>
       <thicknessA>0.0010000</thicknessA>
       <thicknessB>0.0010000</thicknessB>
       <quantity>50</quantity>
       <theta>0</theta>
    </layer>
    <layer>
       <layerName>glass_uni</layerName>
       <thicknessA>0.0010000</thicknessA>
       <thicknessB>0.0010000</thicknessB>
       <quantity>0</quantity>
       <theta>0</theta>
    </layer>
    <layer>
       <layerName>glass_triax</layerName>
       <thicknessA>0.0010000</thicknessA>
       <thicknessB>0.0010000</thicknessB>
       <quantity>50</quantity>
       <theta>0</theta>
    </layer>
    <layer>
       <layerName>Gelcoat</layerName>
       <thicknessA>0.0010000</thicknessA>
       <thicknessB>0.0010000</thicknessB>
       <quantity>0</quantity>
       <theta>0</theta>
    </layer>
 </material>
 <material>
    <type>composite</type>
    <name>000000_HP_TEFILLER</name>
    <reference>Reference text</reference>
    <thicknessType>Constant</thicknessType>
    <uniqueLayers>5</uniqueLayers>
    <symmetryType>none</symmetryType>
    <layer>
       <layerName>Gelcoat</layerName>
       <thicknessA>0.0010000</thicknessA>
       <thicknessB>0.0010000</thicknessB>
       <quantity>5.000000e-01</quantity>
       <theta>0</theta>
    </layer>
    <layer>
       <layerName>glass_triax</layerName>
       <thicknessA>0.0010000</thicknessA>
       <thicknessB>0.0010000</thicknessB>
       <quantity>50</quantity>
       <theta>0</theta>
    </layer>
    <layer>
       <layerName>medium_density_foam</layerName>
       <thicknessA>0.0010000</thicknessA>
       <thicknessB>0.0010000</thicknessB>
       <quantity>0</quantity>
       <theta>0</theta>
    </layer>
    <layer>
       <layerName>glass_triax</layerName>
       <thicknessA>0.0010000</thicknessA>
       <thicknessB>0.0010000</thicknessB>
       <quantity>50</quantity>
       <theta>0</theta>
    </layer>
    <layer>
       <layerName>Gelcoat</layerName>
       <thicknessA>0.0010000</thicknessA>
       <thicknessB>0.0010000</thicknessB>
       <quantity>0</quantity>
       <theta>0</theta>
    </layer>
 </material>
 <material>
    <type>composite</type>
    <name>000000_HP_WEBAFT</name>
    <reference>Reference text</reference>
    <thicknessType>Constant</thicknessType>
    <uniqueLayers>5</uniqueLayers>
    <symmetryType>none</symmetryType>
    <layer>
       <layerName>Gelcoat</layerName>
       <thicknessA>0.0010000</thicknessA>
       <thicknessB>0.0010000</thicknessB>
       <quantity>5.000000e-01</quantity>
       <theta>0</theta>
    </layer>
    <layer>
       <layerName>glass_triax</layerName>
       <thicknessA>0.0010000</thicknessA>
       <thicknessB>0.0010000</thicknessB>
       <quantity>50</quantity>
       <theta>0</theta>
    </layer>
    <layer>
       <layerName>CarbonUD</layerName>
       <thicknessA>0.0010000</thicknessA>
       <thicknessB>0.0010000</thicknessB>
       <quantity>1.000000e-01</quantity>
       <theta>0</theta>
    </layer>
    <layer>
       <layerName>glass_triax</layerName>
       <thicknessA>0.0010000</thicknessA>
       <thicknessB>0.0010000</thicknessB>
       <quantity>50</quantity>
       <theta>0</theta>
    </layer>
    <layer>
       <layerName>Gelcoat</layerName>
       <thicknessA>0.0010000</thicknessA>
       <thicknessB>0.0010000</thicknessB>
       <quantity>0</quantity>
       <theta>0</theta>
    </layer>
 </material>
 <material>
    <type>composite</type>
    <name>000000_HP_CENTERMAINSC</name>
    <reference>Reference text</reference>
    <thicknessType>Constant</thicknessType>
    <uniqueLayers>5</uniqueLayers>
    <symmetryType>none</symmetryType>
    <layer>
       <layerName>Gelcoat</layerName>
       <thicknessA>0.0010000</thicknessA>
       <thicknessB>0.0010000</thicknessB>
       <quantity>5.000000e-01</quantity>
       <theta>0</theta>
    </layer>
    <layer>
       <layerName>glass_triax</layerName>
       <thicknessA>0.0010000</thicknessA>
       <thicknessB>0.0010000</thicknessB>
       <quantity>50</quantity>
       <theta>0</theta>
    </layer>
    <layer>
       <layerName>CarbonUD</layerName>
       <thicknessA>0.0010000</thicknessA>
       <thicknessB>0.0010000</thicknessB>
       <quantity>1.000000e-01</quantity>
       <theta>0</theta>
    </layer>
    <layer>
       <layerName>glass_triax</layerName>
       <thicknessA>0.0010000</thicknessA>
       <thicknessB>0.0010000</thicknessB>
       <quantity>50</quantity>
       <theta>0</theta>
    </layer>
    <layer>
       <layerName>Gelcoat</layerName>
       <thicknessA>0.0010000</thicknessA>
       <thicknessB>0.0010000</thicknessB>
       <quantity>0</quantity>
       <theta>0</theta>
    </layer>
 </material>
 <material>
    <type>composite</type>
    <name>000000_HP_WEBFWD</name>
    <reference>Reference text</reference>
    <thicknessType>Constant</thicknessType>
    <uniqueLayers>5</uniqueLayers>
    <symmetryType>none</symmetryType>
    <layer>
       <layerName>Gelcoat</layerName>
       <thicknessA>0.0010000</thicknessA>
       <thicknessB>0.0010000</thicknessB>
       <quantity>5.000000e-01</quantity>
       <theta>0</theta>
    </layer>
    <layer>
       <layerName>glass_triax</layerName>
       <thicknessA>0.0010000</thicknessA>
       <thicknessB>0.0010000</thicknessB>
       <quantity>50</quantity>
       <theta>0</theta>
    </layer>
    <layer>
       <layerName>CarbonUD</layerName>
       <thicknessA>0.0010000</thicknessA>
       <thicknessB>0.0010000</thicknessB>
       <quantity>1.000000e-01</quantity>
       <theta>0</theta>
    </layer>
    <layer>
       <layerName>glass_triax</layerName>
       <thicknessA>0.0010000</thicknessA>
       <thicknessB>0.0010000</thicknessB>
       <quantity>50</quantity>
       <theta>0</theta>
    </layer>
    <layer>
       <layerName>Gelcoat</layerName>
       <thicknessA>0.0010000</thicknessA>
       <thicknessB>0.0010000</thicknessB>
       <quantity>0</quantity>
       <theta>0</theta>
    </layer>
 </material>
 <material>
    <type>composite</type>
    <name>000000_HP_MAINSC</name>
    <reference>Reference text</reference>
    <thicknessType>Constant</thicknessType>
    <uniqueLayers>5</uniqueLayers>
    <symmetryType>none</symmetryType>
    <layer>
       <layerName>Gelcoat</layerName>
       <thicknessA>0.0010000</thicknessA>
       <thicknessB>0.0010000</thicknessB>
       <quantity>5.000000e-01</quantity>
       <theta>0</theta>
    </layer>
    <layer>
       <layerName>glass_triax</layerName>
       <thicknessA>0.0010000</thicknessA>
       <thicknessB>0.0010000</thicknessB>
       <quantity>50</quantity>
       <theta>0</theta>
    </layer>
    <layer>
       <layerName>CarbonUD</layerName>
       <thicknessA>0.0010000</thicknessA>
       <thicknessB>0.0010000</thicknessB>
       <quantity>1.000000e-01</quantity>
       <theta>0</theta>
    </layer>
    <layer>
       <layerName>glass_triax</layerName>
       <thicknessA>0.0010000</thicknessA>
       <thicknessB>0.0010000</thicknessB>
       <quantity>50</quantity>
       <theta>0</theta>
    </layer>
    <layer>
       <layerName>Gelcoat</layerName>
       <thicknessA>0.0010000</thicknessA>
       <thicknessB>0.0010000</thicknessB>
       <quantity>0</quantity>
       <theta>0</theta>
    </layer>
 </material>
 <material>
    <type>composite</type>
    <name>000000_HP_LEFILLER</name>
    <reference>Reference text</reference>
    <thicknessType>Constant</thicknessType>
    <uniqueLayers>5</uniqueLayers>
    <symmetryType>none</symmetryType>
    <layer>
       <layerName>Gelcoat</layerName>
       <thicknessA>0.0010000</thicknessA>
       <thicknessB>0.0010000</thicknessB>
       <quantity>5.000000e-01</quantity>
       <theta>0</theta>
    </layer>
    <layer>
       <layerName>glass_triax</layerName>
       <thicknessA>0.0010000</thicknessA>
       <thicknessB>0.0010000</thicknessB>
       <quantity>50</quantity>
       <theta>0</theta>
    </layer>
    <layer>
       <layerName>medium_density_foam</layerName>
       <thicknessA>0.0010000</thicknessA>
       <thicknessB>0.0010000</thicknessB>
       <quantity>0</quantity>
       <theta>0</theta>
    </layer>
    <layer>
       <layerName>glass_triax</layerName>
       <thicknessA>0.0010000</thicknessA>
       <thicknessB>0.0010000</thicknessB>
       <quantity>50</quantity>
       <theta>0</theta>
    </layer>
    <layer>
       <layerName>Gelcoat</layerName>
       <thicknessA>0.0010000</thicknessA>
       <thicknessB>0.0010000</thicknessB>
       <quantity>0</quantity>
       <theta>0</theta>
    </layer>
 </material>
 <material>
    <type>composite</type>
    <name>000000_HP_LEPANEL</name>
    <reference>Reference text</reference>
    <thicknessType>Constant</thicknessType>
    <uniqueLayers>5</uniqueLayers>
    <symmetryType>none</symmetryType>
    <layer>
       <layerName>Gelcoat</layerName>
       <thicknessA>0.0010000</thicknessA>
       <thicknessB>0.0010000</thicknessB>
       <quantity>5.000000e-01</quantity>
       <theta>0</theta>
    </layer>
    <layer>
       <layerName>glass_triax</layerName>
       <thicknessA>0.0010000</thicknessA>
       <thicknessB>0.0010000</thicknessB>
       <quantity>50</quantity>
       <theta>0</theta>
    </layer>
    <layer>
       <layerName>glass_uni</layerName>
       <thicknessA>0.0010000</thicknessA>
       <thicknessB>0.0010000</thicknessB>
       <quantity>0</quantity>
       <theta>0</theta>
    </layer>
    <layer>
       <layerName>glass_triax</layerName>
       <thicknessA>0.0010000</thicknessA>
       <thicknessB>0.0010000</thicknessB>
       <quantity>50</quantity>
       <theta>0</theta>
    </layer>
    <layer>
       <layerName>Gelcoat</layerName>
       <thicknessA>0.0010000</thicknessA>
       <thicknessB>0.0010000</thicknessB>
       <quantity>0</quantity>
       <theta>0</theta>
    </layer>
 </material>
 <material>
    <type>composite</type>
    <name>000000_LP_LEREINF</name>
    <reference>Reference text</reference>
    <thicknessType>Constant</thicknessType>
    <uniqueLayers>5</uniqueLayers>
    <symmetryType>none</symmetryType>
    <layer>
       <layerName>Gelcoat</layerName>
       <thicknessA>0.0010000</thicknessA>
       <thicknessB>0.0010000</thicknessB>
       <quantity>5.000000e-01</quantity>
       <theta>0</theta>
    </layer>
    <layer>
       <layerName>glass_triax</layerName>
       <thicknessA>0.0010000</thicknessA>
       <thicknessB>0.0010000</thicknessB>
       <quantity>50</quantity>
       <theta>0</theta>
    </layer>
    <layer>
       <layerName>glass_uni</layerName>
       <thicknessA>0.0010000</thicknessA>
       <thicknessB>0.0010000</thicknessB>
       <quantity>0</quantity>
       <theta>0</theta>
    </layer>
    <layer>
       <layerName>glass_triax</layerName>
       <thicknessA>0.0010000</thicknessA>
       <thicknessB>0.0010000</thicknessB>
       <quantity>50</quantity>
       <theta>0</theta>
    </layer>
    <layer>
       <layerName>Gelcoat</layerName>
       <thicknessA>0.0010000</thicknessA>
       <thicknessB>0.0010000</thicknessB>
       <quantity>0</quantity>
       <theta>0</theta>
    </layer>
 </material>
 <material>
    <type>composite</type>
    <name>000000_LP_LEFILLER</name>
    <reference>Reference text</reference>
    <thicknessType>Constant</thicknessType>
    <uniqueLayers>5</uniqueLayers>
    <symmetryType>none</symmetryType>
    <layer>
       <layerName>Gelcoat</layerName>
       <thicknessA>0.0010000</thicknessA>
       <thicknessB>0.0010000</thicknessB>
       <quantity>5.000000e-01</quantity>
       <theta>0</theta>
    </layer>
    <layer>
       <layerName>glass_triax</layerName>
       <thicknessA>0.0010000</thicknessA>
       <thicknessB>0.0010000</thicknessB>
       <quantity>50</quantity>
       <theta>0</theta>
    </layer>
    <layer>
       <layerName>medium_density_foam</layerName>
       <thicknessA>0.0010000</thicknessA>
       <thicknessB>0.0010000</thicknessB>
       <quantity>0</quantity>
       <theta>0</theta>
    </layer>
    <layer>
       <layerName>glass_triax</layerName>
       <thicknessA>0.0010000</thicknessA>
       <thicknessB>0.0010000</thicknessB>
       <quantity>50</quantity>
       <theta>0</theta>
    </layer>
    <layer>
       <layerName>Gelcoat</layerName>
       <thicknessA>0.0010000</thicknessA>
       <thicknessB>0.0010000</thicknessB>
       <quantity>0</quantity>
       <theta>0</theta>
    </layer>
 </material>
 <material>
    <type>composite</type>
    <name>000000_LP_WEBFWD</name>
    <reference>Reference text</reference>
    <thicknessType>Constant</thicknessType>
    <uniqueLayers>5</uniqueLayers>
    <symmetryType>none</symmetryType>
    <layer>
       <layerName>Gelcoat</layerName>
       <thicknessA>0.0010000</thicknessA>
       <thicknessB>0.0010000</thicknessB>
       <quantity>5.000000e-01</quantity>
       <theta>0</theta>
    </layer>
    <layer>
       <layerName>glass_triax</layerName>
       <thicknessA>0.0010000</thicknessA>
       <thicknessB>0.0010000</thicknessB>
       <quantity>50</quantity>
       <theta>0</theta>
    </layer>
    <layer>
       <layerName>CarbonUD</layerName>
       <thicknessA>0.0010000</thicknessA>
       <thicknessB>0.0010000</thicknessB>
       <quantity>1.000000e-01</quantity>
       <theta>0</theta>
    </layer>
    <layer>
       <layerName>glass_triax</layerName>
       <thicknessA>0.0010000</thicknessA>
       <thicknessB>0.0010000</thicknessB>
       <quantity>50</quantity>
       <theta>0</theta>
    </layer>
    <layer>
       <layerName>Gelcoat</layerName>
       <thicknessA>0.0010000</thicknessA>
       <thicknessB>0.0010000</thicknessB>
       <quantity>0</quantity>
       <theta>0</theta>
    </layer>
 </material>
 <material>
    <type>composite</type>
    <name>000000_LP_CENTERMAINSC</name>
    <reference>Reference text</reference>
    <thicknessType>Constant</thicknessType>
    <uniqueLayers>5</uniqueLayers>
    <symmetryType>none</symmetryType>
    <layer>
       <layerName>Gelcoat</layerName>
       <thicknessA>0.0010000</thicknessA>
       <thicknessB>0.0010000</thicknessB>
       <quantity>5.000000e-01</quantity>
       <theta>0</theta>
    </layer>
    <layer>
       <layerName>glass_triax</layerName>
       <thicknessA>0.0010000</thicknessA>
       <thicknessB>0.0010000</thicknessB>
       <quantity>50</quantity>
       <theta>0</theta>
    </layer>
    <layer>
       <layerName>CarbonUD</layerName>
       <thicknessA>0.0010000</thicknessA>
       <thicknessB>0.0010000</thicknessB>
       <quantity>1.000000e-01</quantity>
       <theta>0</theta>
    </layer>
    <layer>
       <layerName>glass_triax</layerName>
       <thicknessA>0.0010000</thicknessA>
       <thicknessB>0.0010000</thicknessB>
       <quantity>50</quantity>
       <theta>0</theta>
    </layer>
    <layer>
       <layerName>Gelcoat</layerName>
       <thicknessA>0.0010000</thicknessA>
       <thicknessB>0.0010000</thicknessB>
       <quantity>0</quantity>
       <theta>0</theta>
    </layer>
 </material>
 <material>
    <type>composite</type>
    <name>000000_LP_WEBAFT</name>
    <reference>Reference text</reference>
    <thicknessType>Constant</thicknessType>
    <uniqueLayers>5</uniqueLayers>
    <symmetryType>none</symmetryType>
    <layer>
       <layerName>Gelcoat</layerName>
       <thicknessA>0.0010000</thicknessA>
       <thicknessB>0.0010000</thicknessB>
       <quantity>5.000000e-01</quantity>
       <theta>0</theta>
    </layer>
    <layer>
       <layerName>glass_triax</layerName>
       <thicknessA>0.0010000</thicknessA>
       <thicknessB>0.0010000</thicknessB>
       <quantity>50</quantity>
       <theta>0</theta>
    </layer>
    <layer>
       <layerName>CarbonUD</layerName>
       <thicknessA>0.0010000</thicknessA>
       <thicknessB>0.0010000</thicknessB>
       <quantity>1.000000e-01</quantity>
       <theta>0</theta>
    </layer>
    <layer>
       <layerName>glass_triax</layerName>
       <thicknessA>0.0010000</thicknessA>
       <thicknessB>0.0010000</thicknessB>
       <quantity>50</quantity>
       <theta>0</theta>
    </layer>
    <layer>
       <layerName>Gelcoat</layerName>
       <thicknessA>0.0010000</thicknessA>
       <thicknessB>0.0010000</thicknessB>
       <quantity>0</quantity>
       <theta>0</theta>
    </layer>
 </material>
 <material>
    <type>composite</type>
    <name>000000_LP_MAINSC</name>
    <reference>Reference text</reference>
    <thicknessType>Constant</thicknessType>
    <uniqueLayers>5</uniqueLayers>
    <symmetryType>none</symmetryType>
    <layer>
       <layerName>Gelcoat</layerName>
       <thicknessA>0.0010000</thicknessA>
       <thicknessB>0.0010000</thicknessB>
       <quantity>5.000000e-01</quantity>
       <theta>0</theta>
    </layer>
    <layer>
       <layerName>glass_triax</layerName>
       <thicknessA>0.0010000</thicknessA>
       <thicknessB>0.0010000</thicknessB>
       <quantity>50</quantity>
       <theta>0</theta>
    </layer>
    <layer>
       <layerName>CarbonUD</layerName>
       <thicknessA>0.0010000</thicknessA>
       <thicknessB>0.0010000</thicknessB>
       <quantity>1.000000e-01</quantity>
       <theta>0</theta>
    </layer>
    <layer>
       <layerName>glass_triax</layerName>
       <thicknessA>0.0010000</thicknessA>
       <thicknessB>0.0010000</thicknessB>
       <quantity>50</quantity>
       <theta>0</theta>
    </layer>
    <layer>
       <layerName>Gelcoat</layerName>
       <thicknessA>0.0010000</thicknessA>
       <thicknessB>0.0010000</thicknessB>
       <quantity>0</quantity>
       <theta>0</theta>
    </layer>
 </material>
 <material>
    <type>composite</type>
    <name>000000_LP_TEFILLER</name>
    <reference>Reference text</reference>
    <thicknessType>Constant</thicknessType>
    <uniqueLayers>5</uniqueLayers>
    <symmetryType>none</symmetryType>
    <layer>
       <layerName>Gelcoat</layerName>
       <thicknessA>0.0010000</thicknessA>
       <thicknessB>0.0010000</thicknessB>
       <quantity>5.000000e-01</quantity>
       <theta>0</theta>
    </layer>
    <layer>
       <layerName>glass_triax</layerName>
       <thicknessA>0.0010000</thicknessA>
       <thicknessB>0.0010000</thicknessB>
       <quantity>50</quantity>
       <theta>0</theta>
    </layer>
    <layer>
       <layerName>medium_density_foam</layerName>
       <thicknessA>0.0010000</thicknessA>
       <thicknessB>0.0010000</thicknessB>
       <quantity>0</quantity>
       <theta>0</theta>
    </layer>
    <layer>
       <layerName>glass_triax</layerName>
       <thicknessA>0.0010000</thicknessA>
       <thicknessB>0.0010000</thicknessB>
       <quantity>50</quantity>
       <theta>0</theta>
    </layer>
    <layer>
       <layerName>Gelcoat</layerName>
       <thicknessA>0.0010000</thicknessA>
       <thicknessB>0.0010000</thicknessB>
       <quantity>0</quantity>
       <theta>0</theta>
    </layer>
 </material>
 <material>
    <type>composite</type>
    <name>000000_LP_TEREINF</name>
    <reference>Reference text</reference>
    <thicknessType>Constant</thicknessType>
    <uniqueLayers>5</uniqueLayers>
    <symmetryType>none</symmetryType>
    <layer>
       <layerName>Gelcoat</layerName>
       <thicknessA>0.0010000</thicknessA>
       <thicknessB>0.0010000</thicknessB>
       <quantity>5.000000e-01</quantity>
       <theta>0</theta>
    </layer>
    <layer>
       <layerName>glass_triax</layerName>
       <thicknessA>0.0010000</thicknessA>
       <thicknessB>0.0010000</thicknessB>
       <quantity>50</quantity>
       <theta>0</theta>
    </layer>
    <layer>
       <layerName>glass_uni</layerName>
       <thicknessA>0.0010000</thicknessA>
       <thicknessB>0.0010000</thicknessB>
       <quantity>0</quantity>
       <theta>0</theta>
    </layer>
    <layer>
       <layerName>glass_triax</layerName>
       <thicknessA>0.0010000</thicknessA>
       <thicknessB>0.0010000</thicknessB>
       <quantity>50</quantity>
       <theta>0</theta>
    </layer>
    <layer>
       <layerName>Gelcoat</layerName>
       <thicknessA>0.0010000</thicknessA>
       <thicknessB>0.0010000</thicknessB>
       <quantity>0</quantity>
       <theta>0</theta>
    </layer>
 </material>
 <material>
    <type>composite</type>
    <name>000000_LP_FLAT</name>
    <reference>Reference text</reference>
    <thicknessType>Constant</thicknessType>
    <uniqueLayers>5</uniqueLayers>
    <symmetryType>none</symmetryType>
    <layer>
       <layerName>Gelcoat</layerName>
       <thicknessA>0.0010000</thicknessA>
       <thicknessB>0.0010000</thicknessB>
       <quantity>5.000000e-01</quantity>
       <theta>0</theta>
    </layer>
    <layer>
       <layerName>glass_triax</layerName>
       <thicknessA>0.0010000</thicknessA>
       <thicknessB>0.0010000</thicknessB>
       <quantity>50</quantity>
       <theta>0</theta>
    </layer>
    <layer>
       <layerName>glass_uni</layerName>
       <thicknessA>0.0010000</thicknessA>
       <thicknessB>0.0010000</thicknessB>
       <quantity>0</quantity>
       <theta>0</theta>
    </layer>
    <layer>
       <layerName>glass_triax</layerName>
       <thicknessA>0.0010000</thicknessA>
       <thicknessB>0.0010000</thicknessB>
       <quantity>50</quantity>
       <theta>0</theta>
    </layer>
    <layer>
       <layerName>Gelcoat</layerName>
       <thicknessA>0.0010000</thicknessA>
       <thicknessB>0.0010000</thicknessB>
       <quantity>0</quantity>
       <theta>0</theta>
    </layer>
 </material>
 <material>
    <type>composite</type>
    <name>002340_HP_FLAT</name>
    <reference>Reference text</reference>
    <thicknessType>Constant</thicknessType>
    <uniqueLayers>5</uniqueLayers>
    <symmetryType>none</symmetryType>
    <layer>
       <layerName>Gelcoat</layerName>
       <thicknessA>0.0010000</thicknessA>
       <thicknessB>0.0010000</thicknessB>
       <quantity>5.000000e-01</quantity>
       <theta>0</theta>
    </layer>
    <layer>
       <layerName>glass_triax</layerName>
       <thicknessA>0.0010000</thicknessA>
       <thicknessB>0.0010000</thicknessB>
       <quantity>4.459132e+01</quantity>
       <theta>0</theta>
    </layer>
    <layer>
       <layerName>glass_uni</layerName>
       <thicknessA>0.0010000</thicknessA>
       <thicknessB>0.0010000</thicknessB>
       <quantity>0</quantity>
       <theta>0</theta>
    </layer>
    <layer>
       <layerName>glass_triax</layerName>
       <thicknessA>0.0010000</thicknessA>
       <thicknessB>0.0010000</thicknessB>
       <quantity>4.459132e+01</quantity>
       <theta>0</theta>
    </layer>
    <layer>
       <layerName>Gelcoat</layerName>
       <thicknessA>0.0010000</thicknessA>
       <thicknessB>0.0010000</thicknessB>
       <quantity>0</quantity>
       <theta>0</theta>
    </layer>
 </material>
 <material>
    <type>composite</type>
    <name>002340_HP_TEREINF</name>
    <reference>Reference text</reference>
    <thicknessType>Constant</thicknessType>
    <uniqueLayers>5</uniqueLayers>
    <symmetryType>none</symmetryType>
    <layer>
       <layerName>Gelcoat</layerName>
       <thicknessA>0.0010000</thicknessA>
       <thicknessB>0.0010000</thicknessB>
       <quantity>5.000000e-01</quantity>
       <theta>0</theta>
    </layer>
    <layer>
       <layerName>glass_triax</layerName>
       <thicknessA>0.0010000</thicknessA>
       <thicknessB>0.0010000</thicknessB>
       <quantity>4.459132e+01</quantity>
       <theta>0</theta>
    </layer>
    <layer>
       <layerName>glass_uni</layerName>
       <thicknessA>0.0010000</thicknessA>
       <thicknessB>0.0010000</thicknessB>
       <quantity>0</quantity>
       <theta>0</theta>
    </layer>
    <layer>
       <layerName>glass_triax</layerName>
       <thicknessA>0.0010000</thicknessA>
       <thicknessB>0.0010000</thicknessB>
       <quantity>4.459132e+01</quantity>
       <theta>0</theta>
    </layer>
    <layer>
       <layerName>Gelcoat</layerName>
       <thicknessA>0.0010000</thicknessA>
       <thicknessB>0.0010000</thicknessB>
       <quantity>0</quantity>
       <theta>0</theta>
    </layer>
 </material>
 <material>
    <type>composite</type>
    <name>002340_HP_TEFILLER</name>
    <reference>Reference text</reference>
    <thicknessType>Constant</thicknessType>
    <uniqueLayers>5</uniqueLayers>
    <symmetryType>none</symmetryType>
    <layer>
       <layerName>Gelcoat</layerName>
       <thicknessA>0.0010000</thicknessA>
       <thicknessB>0.0010000</thicknessB>
       <quantity>5.000000e-01</quantity>
       <theta>0</theta>
    </layer>
    <layer>
       <layerName>glass_triax</layerName>
       <thicknessA>0.0010000</thicknessA>
       <thicknessB>0.0010000</thicknessB>
       <quantity>4.459132e+01</quantity>
       <theta>0</theta>
    </layer>
    <layer>
       <layerName>medium_density_foam</layerName>
       <thicknessA>0.0010000</thicknessA>
       <thicknessB>0.0010000</thicknessB>
       <quantity>0</quantity>
       <theta>0</theta>
    </layer>
    <layer>
       <layerName>glass_triax</layerName>
       <thicknessA>0.0010000</thicknessA>
       <thicknessB>0.0010000</thicknessB>
       <quantity>4.459132e+01</quantity>
       <theta>0</theta>
    </layer>
    <layer>
       <layerName>Gelcoat</layerName>
       <thicknessA>0.0010000</thicknessA>
       <thicknessB>0.0010000</thicknessB>
       <quantity>0</quantity>
       <theta>0</theta>
    </layer>
 </material>
 <material>
    <type>composite</type>
    <name>002340_HP_WEBAFT</name>
    <reference>Reference text</reference>
    <thicknessType>Constant</thicknessType>
    <uniqueLayers>5</uniqueLayers>
    <symmetryType>none</symmetryType>
    <layer>
       <layerName>Gelcoat</layerName>